20

O         -0.71450        3.71250        0.00000
C          0.00000        3.30000        0.00000
O          0.71450        3.71250        0.00000
C          0.00000        2.47500        0.00000
C          0.71450        2.06250        0.00000
C          0.71450        1.23750        0.00000
C          1.42890        0.82500        0.00000
C          1.42890       -0.00000        0.00000
C          0.71450       -0.41250        0.00000
O          0.71450       -1.23750        0.00000
C          0.00000        0.00000        0.00000
C          0.00000        0.82500        0.00000
H         -0.71452        4.64950        0.00000
H         -0.89373        1.95899        0.00000
H          1.60823        2.57851        0.00000
H          2.32265        1.34098        0.00000
H          2.32265       -0.51598        0.00000
H         -0.09697       -1.70600        0.00000
H         -0.89373       -0.51601        0.00000
H         -0.89373        1.34101        0.00000
